---- qbsp / TyrUtils ericw-v0.15.3 ----
Input file: C:\quake\id1\maps\unrest.map
Output file: C:\quake\id1\maps\unrest.bsp

---- LoadMapFile ----
*** WARNING 06: No info_player_deathmatch entities in level
         2053 faces
          346 brushes
          116 entities
           23 unique texnames
         4106 texinfo

Opened WAD: C:\quake\id1\quake.wad
Processing hull 0...
---- Brush_LoadEntity ----
          224 brushes
           93 detail
---- CSGFaces ----
         1879 brushfaces
         1642 csgfaces
         1504 mergedfaces
---- SolidBSP ----
         1957 split nodes
          679 solid leafs
         1266 empty leafs
           13 water leafs
         4162 leaffaces
         3840 nodefaces
---- Portalize ----
         1279 vis leafs
         1279 vis clusters
         3367 vis portals
---- FillOutside ----
*** WARNING 10: Reached occupant at (0 -2528 288), no filling performed.
Leak file written to C:\quake\id1\maps\unrest.pts
---- MakeFaceEdges ----
---- GrowRegions ----
Processing hull 1...
*** WARNING 10: Reached occupant at (0 -2528 288), no filling performed.
Processing hull 2...
*** WARNING 10: Reached occupant at (-1280 -2624 24), no filling performed.
---- WriteBSPFile ----
         1045 planes            20900
         4678 vertexes          56136
         2035 nodes             48840
          174 texinfo            6960
         3926 faces             78520
         3561 clipnodes         28488
         1358 leafs             38024
         4248 marksurfaces       8496
        15441 surfedges         61764
         9804 edges             39216
           27 textures         141952
              lightdata             0
              visdata               0
              entdata            6985

0.806 seconds elapsed
Peak memory usage: 32551963 (31.0M)
